/batch
/config,noeldb,1     ! force off writing results to database
*get,_wallstrt,active,,time,wall
! ANSYS input file written by Workbench version 2021 R1
! File used for geometry attach: C:\Users\xie\AppData\Local\Temp\WB_xie_16292_2\wbnew_files\dp0\Geom\DM\Geom.scdoc
/title,wbnew--Static Structural (B5)
! ****** Begin Custom Load Command Snippet ******
/COM, ACT Extensions:
/COM,     LSDYNA, 2021.1
/COM,     5f463412-bd3e-484b-87e7-cbc0a665e474, wbex
/COM,
! ****** End   Custom Load Command Snippet ******
*DIM,_wb_ProjectScratch_dir,string,248
_wb_ProjectScratch_dir(1) = 'C:\Users\xie\AppData\Local\Temp\WB_xie_16292_2\_ProjectScratch\Scr8689\'
*DIM,_wb_SolverFiles_dir,string,248
_wb_SolverFiles_dir(1) = 'C:\Users\xie\AppData\Local\Temp\WB_xie_16292_2\wbnew_files\dp0\SYS\MECH\'
*DIM,_wb_userfiles_dir,string,248
_wb_userfiles_dir(1) = 'C:\Users\xie\AppData\Local\Temp\WB_xie_16292_2\wbnew_files\user_files\'
/com,--- Data in consistent NMM units. See Solving Units in the help system for more information.
/units,MPA
/nopr
/wb,file,start              !  signify a WB generated input file
/prep7
! Turn off shape checking because checks already performed inside WB mesher.
! See help system for more information.
SHPP,OFF,,NOWARN
/nolist
etcon,set             ! allow ANSYS to choose best KEYOP's for 180x elements, resets any applicable keyopt to MAPDL defaults
/com,*********** Nodes for the whole assembly ***********
nblock,3,,3022
(1i9,3e20.9e3)
        1     6.429183358E-15     1.050000000E+02     0.000000000E+00
        2     6.678143281E-15     1.000000000E+02     0.000000000E+00
        3     1.000000000E+02     0.000000000E+00     0.000000000E+00
        4     1.050000000E+02    -3.061515885E-16     0.000000000E+00
        5     1.009951929E+02     9.853947471E-01     0.000000000E+00
        6     1.009807722E+02     1.970695695E+00     0.000000000E+00
        7     1.009567392E+02     2.955809054E+00     0.000000000E+00
        8     1.009230962E+02     3.940641052E+00     0.000000000E+00
        9     1.008798464E+02     4.925097943E+00     0.000000000E+00
       10     1.008269939E+02     5.909086017E+00     0.000000000E+00
       11     1.007645438E+02     6.892511609E+00     0.000000000E+00
       12     1.006925019E+02     7.875281109E+00     0.000000000E+00
       13     1.006108753E+02     8.857300966E+00     0.000000000E+00
       14     1.005196715E+02     9.838477702E+00     0.000000000E+00
       15     1.004188993E+02     1.081871792E+01     0.000000000E+00
       16     1.003085684E+02     1.179792831E+01     0.000000000E+00
       17     1.001886891E+02     1.277601567E+01     0.000000000E+00
       18     1.000592729E+02     1.375288689E+01     0.000000000E+00
       19     9.992033222E+01     1.472844898E+01     0.000000000E+00
       20     9.977188015E+01     1.570260908E+01     0.000000000E+00
! ... 2729 like lines cut
/wb,elem,start            !  set before creation of elements
/com,*********** Elements for Body 1 "Geom\Surface" ***********
et,1,183
keyo,1,3,3
eblock,19,solid,,805
(19i9)
        1        1        1        1        0        0        0        0        8        0        1      805        5      809        3      983      984      978      977
        1        1        1        1        0        0        0        0        8        0        2      806      165        5      805     1464      982      983     2584
        1        1        1        1        0        0        0        0        8        0        3      807      325      165      806     1785     1463     1464     2585
        1        1        1        1        0        0        0        0        8        0        4      808      485      325      807     2106     1784     1785     2586
        1        1        1        1        0        0        0        0        8        0        5        4      645      485      808      979     2105     2106      980
        1        1        1        1        0        0        0        0        8        0        6        5        6      810      809      981      987     2587      984
        1        1        1        1        0        0        0        0        8        0        7      165      166        6        5     1462      986      981      982
        1        1        1        1        0        0        0        0        8        0        8      325      326      166      165     1783     1466     1462     1463
        1        1        1        1        0        0        0        0        8        0        9      485      486      326      325     2104     1787     1783     1784
        1        1        1        1        0        0        0        0        8        0       10      645      646      486      485     2425     2108     2104     2105
        1        1        1        1        0        0        0        0        8        0       11        6        7      811      810      985      990     2588      987
        1        1        1        1        0        0        0        0        8        0       12      166      167        7        6     1465      989      985      986
        1        1        1        1        0        0        0        0        8        0       13      326      327      167      166     1786     1468     1465     1466
        1        1        1        1        0        0        0        0        8        0       14      486      487      327      326     2107     1789     1786     1787
        1        1        1        1        0        0        0        0        8        0       15      646      647      487      486     2426     2110     2107     2108
        1        1        1        1        0        0        0        0        8        0       16        7        8      812      811      988      993     2589      990
        1        1        1        1        0        0        0        0        8        0       17      167      168        8        7     1467      992      988      989
        1        1        1        1        0        0        0        0        8        0       18      327      328      168      167     1788     1470     1467     1468
        1        1        1        1        0        0        0        0        8        0       19      487      488      328      327     2109     1791     1788     1789
        1        1        1        1        0        0        0        0        8        0       20      647      648      488      487     2427     2112     2109     2110
! ... 786 like lines cut
!Material Id = {1302E7B3-8F21-40D2-A176-ED1D32551BC1}
/wb,elem,end               !  done creating elements
/com,*********** Send User Defined Coordinate System(s) ***********
csys,0
toffst,273.15,  ! Temperature offset from absolute zero
/com,*********** Set Reference Temperature ***********
tref,22.
/wb,mat,start              !  starting to send materials
/com,*********** Send Materials ***********
Temperature = 'TEMP' ! Temperature
MP,DENS,1,7.85e-09,	! tonne mm^-3
MP,ALPX,1,1.2e-05,	! C^-1
MP,C,1,434000000,	! mm^2 s^-2 C^-1
MP,KXX,1,60.5,	! tonne mm s^-3 C^-1
MP,RSVX,1,0.00017,	! ohm mm
MP,EX,1,200000,	! tonne s^-2 mm^-1
MP,NUXY,1,0.3,
MP,MURX,1,10000,

/wb,mat,end                !  done sending materials
/com,*********** Send Sheet Properties ***********
r,1,1000.

!************************* Model Summary ********************
!Geom\Surface,	Structural Steel,	matid,	1
!************************* End Model Summary ********************
! get the diagonal of the bounding box. Needed later for other things
*get,_xmin,node,,mnloc,x
*get,_ymin,node,,mnloc,y
*get,_zmin,node,,mnloc,z
*get,_xmax,node,,mxloc,x
*get,_ymax,node,,mxloc,y
*get,_zmax,node,,mxloc,z
_ASMDIAG=(_xmax-_xmin)*(_xmax-_xmin)+(_ymax-_ymin)*(_ymax-_ymin)+(_zmax-_zmin)*(_zmax-_zmin)
_ASMDIAG=SQRT(_ASMDIAG)
/wb,contact,start          !  starting to send contact
/wb,contact,end            !  done creating contacts
/golist
/wb,load,start             !  starting to send loads
/com,********* Frictionless Supports X *********
CMBLOCK,_FRICSUX,NODE,       11
(8i10)
         1         2       969       970       971       972       974       976
      2746      2747      2748
cmsel,s,_FRICSUX
d,all,ux,0
nsel,all
/com,********* Frictionless Supports Y *********
CMBLOCK,_FRICSUY,NODE,       11
(8i10)
         3         4       805       806       807       808       977       980
      2584      2585      2586
cmsel,s,_FRICSUY
d,all,uy,0
nsel,all
/com,*********** Define Pressure Using Surface Effect Elements ***********
et,2,153
keyop,2,3,10        ! get plane stress option and thickness from underlying element
eblock,10,,,161
(15i9)
      806        2        2        2        0        3      809      978
      807        2        2        2        0      809      810     2587
      808        2        2        2        0      810      811     2588
      809        2        2        2        0      811      812     2589
      810        2        2        2        0      812      813     2590
      811        2        2        2        0      813      814     2591
      812        2        2        2        0      814      815     2592
      813        2        2        2        0      815      816     2593
      814        2        2        2        0      816      817     2594
      815        2        2        2        0      817      818     2595
      816        2        2        2        0      818      819     2596
      817        2        2        2        0      819      820     2597
      818        2        2        2        0      820      821     2598
      819        2        2        2        0      821      822     2599
      820        2        2        2        0      822      823     2600
      821        2        2        2        0      823      824     2601
      822        2        2        2        0      824      825     2602
      823        2        2        2        0      825      826     2603
      824        2        2        2        0      826      827     2604
      825        2        2        2        0      827      828     2605
! ... 142 like lines cut
esel,s,type,,2
keyop,2,7,0                ! Use deformed area for application of load
esel,all

*DIM,_loadvari30,TABLE,2,1,1,TIME,
! Time values
_loadvari30(1,0,1) = 0.
_loadvari30(2,0,1) = 1.
! Load values
_loadvari30(1,1,1) = 0.
_loadvari30(2,1,1) = 2.

esel,all
/gst,on,on
fini
*get,_numnode,node,0,count
*get,_numelem,elem,0,count
*get, _MAXELEMNUM, elem, 0, NUM, MAX
*get, _MAXNODENUM, node, 0, NUM, MAX
*get, _MAXELEMTYPE, etyp, 0, NUM, MAX
*get, _MAXREALCONST, real, 0, NUM, MAX
/go
/wb,load,end               !  done creating loads
/com,--- Number of total nodes = %_numnode%
/com,--- Number of contact elements = 161
/com,--- Number of spring elements = 0
/com,--- Number of bearing elements = 0
/com,--- Number of solid elements = 805
/com,--- Number of condensed parts = 0
/com,--- Number of total elements = %_numelem%
*get,_wallbsol,active,,time,wall
/com,****************************************************************************
/com,*************************    SOLUTION       ********************************
/com,****************************************************************************
/solu
antype,0                   ! static analysis
_thickRatio=  0     ! Ratio of thick parts in the model
eqsl,sparse,,,,,1
cntr,print,1               ! print out contact info and also make no initial contact an error
dmpoption,emat,no             ! Don't combine emat file for DANSYS
dmpoption,esav,no             ! Don't combine esav file for DANSYS
nldiag,cont,iter           ! print out contact info each equilibrium iteration
rescontrol,,none                 ! Do not keep any restart files
/com,****************************************************
/com,******************* SOLVE FOR LS 1 OF 1 ****************
esel,s,type,,2
nsle
sf,all,pres,%_loadvari30%
nsel,all
esel,all
esel,all
/nopr
/gopr
/nolist
nsub,1,1,1
time,1.
outres,erase
outres,all,none
outres,nsol,all,
outres,rsol,all
outres,eangl,all
outres,etmp,all
outres,veng,all
outres,strs,all,
outres,epel,all,
outres,eppl,all,
outres,cont,all,
! *********** WB SOLVE COMMAND ***********
! check interactive state
*get,ANSINTER_,active,,int
*if,ANSINTER_,ne,0,then
/eof
*endif
solve
/com *************** Write FE CONNECTORS ********* 
CEWRITE,file,ce,,INTE
/com,****************************************************
/com,*************** FINISHED SOLVE FOR LS 1 *************
*get,_wallasol,active,,time,wall
/nopr
*get,_numnode,node,0,count
*get,_numelem,elem,0,count
*get, _MAXELEMNUM, elem, 0, NUM, MAX
*get, _MAXNODENUM, node, 0, NUM, MAX,,,INTERNAL
*get, _MAXELEMTYPE, etyp, 0, NUM, MAX
*get, _MAXREALCONST, real, 0, NUM, MAX
/gopr
/post1
xmlo,ENCODING,ISO-8859-1
xmlo,parm
/xml,parm,xml
fini
/gopr
*get,_walldone,active,,time,wall
_preptime=(_wallbsol-_wallstrt)*3600
_solvtime=(_wallasol-_wallbsol)*3600
_posttime=(_walldone-_wallasol)*3600
_totaltim=(_walldone-_wallstrt)*3600
*get,_dlbratio,active,0,solu,dlbr
*get,_combtime,active,0,solu,comb
/com,--- Total number of nodes = %_numnode%
/com,--- Total number of elements = %_numelem%
/com,--- Element load balance ratio = %_dlbratio%
/com,--- Time to combine distributed files = %_combtime%
/wb,file,end               ! done with WB generated input
