/batch
/config,noeldb,1     ! force off writing results to database
*get,_wallstrt,active,,time,wall
! ANSYS input file written by Workbench version 2021 R1
! File used for geometry attach: C:\Users\xie\AppData\Local\Temp\WB_xie_10276_2\wbnew_files\dp0\SYS\DM\SYS.scdoc
/title,wbnew--Static Structural (A5)
! ****** Begin Custom Load Command Snippet ******
/COM, ACT Extensions:
/COM,     LSDYNA, 2021.1
/COM,     5f463412-bd3e-484b-87e7-cbc0a665e474, wbex
/COM,
! ****** End   Custom Load Command Snippet ******
*DIM,_wb_ProjectScratch_dir,string,248
_wb_ProjectScratch_dir(1) = 'C:\Users\xie\AppData\Local\Temp\WB_xie_10276_2\_ProjectScratch\ScrB596\'
*DIM,_wb_SolverFiles_dir,string,248
_wb_SolverFiles_dir(1) = 'C:\Users\xie\AppData\Local\Temp\WB_xie_10276_2\wbnew_files\dp0\SYS\MECH\'
*DIM,_wb_userfiles_dir,string,248
_wb_userfiles_dir(1) = 'C:\Users\xie\AppData\Local\Temp\WB_xie_10276_2\wbnew_files\user_files\'
/com,--- Data in consistent NMM units. See Solving Units in the help system for more information.
/units,MPA
/nopr
/wb,file,start              !  signify a WB generated input file
/prep7
! Turn off shape checking because checks already performed inside WB mesher.
! See help system for more information.
SHPP,OFF,,NOWARN
/nolist
etcon,set             ! allow ANSYS to choose best KEYOP's for 180x elements, resets any applicable keyopt to MAPDL defaults
/com,*********** Nodes for the whole assembly ***********
nblock,3,,90
(1i9,3e20.9e3)
        1     0.000000000E+00     0.000000000E+00     0.000000000E+00
        2     1.000000000E+02     1.732050808E+02     0.000000000E+00
        3     5.000000000E+00     8.660254038E+00     0.000000000E+00
        4     1.000000000E+01     1.732050808E+01     0.000000000E+00
        5     1.500000000E+01     2.598076211E+01     0.000000000E+00
        6     2.000000000E+01     3.464101615E+01     0.000000000E+00
        7     2.500000000E+01     4.330127019E+01     0.000000000E+00
        8     3.000000000E+01     5.196152423E+01     0.000000000E+00
        9     3.500000000E+01     6.062177826E+01     0.000000000E+00
       10     4.000000000E+01     6.928203230E+01     0.000000000E+00
       11     4.500000000E+01     7.794228634E+01     0.000000000E+00
       12     5.000000000E+01     8.660254038E+01     0.000000000E+00
       13     5.500000000E+01     9.526279442E+01     0.000000000E+00
       14     6.000000000E+01     1.039230485E+02     0.000000000E+00
       15     6.500000000E+01     1.125833025E+02     0.000000000E+00
       16     7.000000000E+01     1.212435565E+02     0.000000000E+00
       17     7.500000000E+01     1.299038106E+02     0.000000000E+00
       18     8.000000000E+01     1.385640646E+02     0.000000000E+00
       19     8.500000000E+01     1.472243186E+02     0.000000000E+00
       20     9.000000000E+01     1.558845727E+02     0.000000000E+00
! ... 63 like lines cut
/wb,elem,start            !  set before creation of elements
/com,*********** Elements for Body 1 "Beam (Circle)" ***********
et,1,188
keyo,1,3,2
eblock,19,solid,,40
(19i9)
        1        1        1        1        0        0        0        0        3        0        1        1        3       42
        1        1        1        1        0        0        0        0        3        0        2        3        4       43
        1        1        1        1        0        0        0        0        3        0        3        4        5       44
        1        1        1        1        0        0        0        0        3        0        4        5        6       45
        1        1        1        1        0        0        0        0        3        0        5        6        7       46
        1        1        1        1        0        0        0        0        3        0        6        7        8       47
        1        1        1        1        0        0        0        0        3        0        7        8        9       48
        1        1        1        1        0        0        0        0        3        0        8        9       10       49
        1        1        1        1        0        0        0        0        3        0        9       10       11       50
        1        1        1        1        0        0        0        0        3        0       10       11       12       51
        1        1        1        1        0        0        0        0        3        0       11       12       13       52
        1        1        1        1        0        0        0        0        3        0       12       13       14       53
        1        1        1        1        0        0        0        0        3        0       13       14       15       54
        1        1        1        1        0        0        0        0        3        0       14       15       16       55
        1        1        1        1        0        0        0        0        3        0       15       16       17       56
        1        1        1        1        0        0        0        0        3        0       16       17       18       57
        1        1        1        1        0        0        0        0        3        0       17       18       19       58
        1        1        1        1        0        0        0        0        3        0       18       19       20       59
        1        1        1        1        0        0        0        0        3        0       19       20       21       60
        1        1        1        1        0        0        0        0        3        0       20       21        2       61
! ... 21 like lines cut
!Material Id = {98D0421E-4FD2-47EA-8366-DA6880B6A084}
/wb,elem,end               !  done creating elements
/com,*********** Send User Defined Coordinate System(s) ***********
csys,0
toffst,273.15,  ! Temperature offset from absolute zero
/com,*********** Set Reference Temperature ***********
tref,22.
/wb,mat,start              !  starting to send materials
/com,*********** Send Materials ***********
MP,EX,1,210000,	! tonne s^-2 mm^-1
MP,NUXY,1,0.3,

/wb,mat,end                !  done sending materials
/com,*********** Send Beam Properties ***********
SECTYPE,1,BEAM,CSOL
SECDATA,12.5
secoffset,cent

!************************* Model Summary ********************
!Beam (Circle),	Steel,	matid,	1
!************************* End Model Summary ********************
! get the diagonal of the bounding box. Needed later for other things
*get,_xmin,node,,mnloc,x
*get,_ymin,node,,mnloc,y
*get,_zmin,node,,mnloc,z
*get,_xmax,node,,mxloc,x
*get,_ymax,node,,mxloc,y
*get,_zmax,node,,mxloc,z
_ASMDIAG=(_xmax-_xmin)*(_xmax-_xmin)+(_ymax-_ymin)*(_ymax-_ymin)+(_zmax-_zmin)*(_zmax-_zmin)
_ASMDIAG=SQRT(_ASMDIAG)
/wb,contact,start          !  starting to send contact
/wb,contact,end            !  done creating contacts
/golist
/wb,load,start             !  starting to send loads
/com,*********** Simple Supports ***********
CMBLOCK,_SIMPLSU,NODE,        2
(8i10)
         2        22
cmsel,s,_SIMPLSU
d,all,ux,0
d,all,uy,0
d,all,uz,0
nsel,all
/com,********** Rotational Supports X **********
CMBLOCK,_ROTSUX ,NODE,        2
(8i10)
         2        22
cmsel,s,_ROTSUX
d,all,rotx,0
nsel,all
/com,********** Rotational Supports Y **********
CMBLOCK,_ROTSUY ,NODE,        2
(8i10)
         2        22
cmsel,s,_ROTSUY
d,all,roty,0
nsel,all
/com,*********** Create Beam End Releases ***********
! Beam end release with connection behavior as coupled
cp,next,ux,1,82
cp,next,uy,1,82
cp,next,uz,1,82
cp,next,rotx,1,82
cp,next,roty,1,82
cp,next,rotz,1,82
/com,*********** Define Vertex Force Using Follower Elements ***********
et,2,201
keyo,2,1,1           ! Keep the direction constant
keyo,2,2,1           ! Apply Forces only, not moment
mat,2
real,2
type,2
en,42,1
en,43,82
r,2
rmod,2,1,1.0,              ! FX
mat,3
real,3
type,2
en,44,1
en,45,82
r,3
rmod,3,2,1.0,              ! FY
mat,4
real,4
type,2
en,46,1
en,47,82
r,4
rmod,4,3,1.0,              ! FZ
/gst,on,on
fini
*get,_numnode,node,0,count
*get,_numelem,elem,0,count
*get, _MAXELEMNUM, elem, 0, NUM, MAX
*get, _MAXNODENUM, node, 0, NUM, MAX
*get, _MAXELEMTYPE, etyp, 0, NUM, MAX
*get, _MAXREALCONST, real, 0, NUM, MAX
/go
/wb,load,end               !  done creating loads
/com,--- Number of total nodes = %_numnode%
/com,--- Number of contact elements = 0
/com,--- Number of spring elements = 0
/com,--- Number of bearing elements = 0
/com,--- Number of solid elements = 40
/com,--- Number of condensed parts = 0
/com,--- Number of total elements = %_numelem%
*get,_wallbsol,active,,time,wall
/com,****************************************************************************
/com,*************************    SOLUTION       ********************************
/com,****************************************************************************
/solu
antype,0                   ! static analysis
_thickRatio=  0     ! Ratio of thick parts in the model
eqsl,sparse,,,,,1
cntr,print,1               ! print out contact info and also make no initial contact an error
dmpoption,emat,no             ! Don't combine emat file for DANSYS
dmpoption,esav,no             ! Don't combine esav file for DANSYS
nldiag,cont,iter           ! print out contact info each equilibrium iteration
rescontrol,,none                 ! Do not keep any restart files
/com,****************************************************
/com,******************* SOLVE FOR LS 1 OF 1 ****************
esel,s,real,,2
sfe,all,1,pres,1,0.
esel,s,real,,3
sfe,all,1,pres,1,-50000.
esel,s,real,,4
sfe,all,1,pres,1,0.
esel,all
/nopr
/gopr
/nolist
nsub,1,1,1
time,1.
outres,erase
outres,all,none
outres,nsol,all,
outres,rsol,all
outres,eangl,all
outres,etmp,all
outres,veng,all
outres,strs,all,
outres,epel,all,
outres,eppl,all,
outres,cont,all,
/nopr
esel,s,type,,1
cm,_elmisc,elem
esel,all
/gopr
outres,misc,all,_elmisc
! *********** WB SOLVE COMMAND ***********
! check interactive state
*get,ANSINTER_,active,,int
*if,ANSINTER_,ne,0,then
/eof
*endif
solve
/com *************** Write FE CONNECTORS ********* 
CEWRITE,file,ce,,INTE
/com,****************************************************
/com,*************** FINISHED SOLVE FOR LS 1 *************
*get,_wallasol,active,,time,wall
/nopr
*get,_numnode,node,0,count
*get,_numelem,elem,0,count
*get, _MAXELEMNUM, elem, 0, NUM, MAX
*get, _MAXNODENUM, node, 0, NUM, MAX,,,INTERNAL
*get, _MAXELEMTYPE, etyp, 0, NUM, MAX
*get, _MAXREALCONST, real, 0, NUM, MAX
/gopr
/post1
xmlo,ENCODING,ISO-8859-1
xmlo,parm
/xml,parm,xml
fini
/gopr
*get,_walldone,active,,time,wall
_preptime=(_wallbsol-_wallstrt)*3600
_solvtime=(_wallasol-_wallbsol)*3600
_posttime=(_walldone-_wallasol)*3600
_totaltim=(_walldone-_wallstrt)*3600
*get,_dlbratio,active,0,solu,dlbr
*get,_combtime,active,0,solu,comb
/com,--- Total number of nodes = %_numnode%
/com,--- Total number of elements = %_numelem%
/com,--- Element load balance ratio = %_dlbratio%
/com,--- Time to combine distributed files = %_combtime%
/wb,file,end               ! done with WB generated input
